! ENERGY BHANDHLYP def2-svp def2/jk RIJCOSX           # for small systems increase accuracy by: Grid5 FinalGrid6 
! NOPOP
! MiniPrint
! AUTOSTART         # try to read from previous step
* xyz 1 2 
 O -5.2127658215874867e-02 0.0000000000000000e+00 -4.0726586338626733e-02
 H -5.3042658215874866e-02 0.0000000000000000e+00 9.2064241366137334e-01
 H 8.8046334178412511e-01 0.0000000000000000e+00 -2.7419058633862675e-01
*
$new_job
! ENGRAD BHANDHLYP def2-svp def2/jk RIJCOSX
! NOPOP
! moread
! MiniPrint

%tddft
  maxdim 5
  nroots 2
  maxcore 8000
  iroot 2  
  PrintLevel 3
end
* xyz 1 2 
 O -5.2127658215874867e-02 0.0000000000000000e+00 -4.0726586338626733e-02
 H -5.3042658215874866e-02 0.0000000000000000e+00 9.2064241366137334e-01
 H 8.8046334178412511e-01 0.0000000000000000e+00 -2.7419058633862675e-01
*
